950
Atoms. Timestep: 0
H 5.853990 2.002250 6.355900
H 5.869110 2.004430 6.345440
H 5.437470 2.136770 7.294060
H 5.448810 2.155690 7.279350
H 6.044220 2.979910 9.003070
H 5.507100 2.494620 8.262990
H 5.516880 2.525420 8.243920
H 5.968840 31.896100 20.183500
H 5.962050 31.890400 20.219200
H 5.188710 32.520900 20.495200
H 5.190530 32.512100 20.477500
H 4.206170 32.892800 22.197000
H 4.216810 32.839400 22.193500
H 5.701900 31.501600 22.125900
H 4.549240 32.857400 21.213200
H 5.432500 32.029000 21.331000
H 5.125570 32.179500 21.669500
H 4.941230 32.215000 22.181900
H 5.676280 31.537200 22.166800
H 4.546020 32.887800 21.219100
H 5.835370 31.698800 21.154700
H 5.920060 31.045300 23.002600
H 5.434970 31.107200 24.068300
H 5.390510 31.183900 24.114400
H 5.568440 31.304400 23.097100
H 4.282310 32.463000 23.155600
H 4.260240 32.534500 23.166700
H 4.728180 31.828900 23.841800
H 4.693740 31.909100 23.868600
H 5.185010 31.723100 23.017700
H 4.992110 31.982300 22.640700
H 6.626360 1.043520 1.367270
H 6.616250 1.087310 1.328460
H 6.924600 1.896280 0.760825
H 6.925300 1.862410 0.808887
H 6.645060 2.127100 5.699900
H 6.665150 2.112160 5.692420
H 7.598710 2.477870 5.501820
H 7.623640 2.450020 5.495270
H 8.459420 2.960570 5.814740
H 8.487760 2.927470 5.806820
H 6.968290 2.541580 6.543090
H 6.948440 2.548670 6.554400
H 7.251820 2.970240 7.408910
H 7.271420 2.971010 7.393750
H 6.344640 2.553510 7.351480
H 6.360120 2.563350 7.336550
H 7.855620 2.965410 6.611820
H 7.879590 2.949240 6.600290
H 9.025960 3.416600 6.543590
H 8.996540 3.445860 6.554820
H 8.182730 3.378670 7.450950
H 8.159000 3.386970 7.466330
H 9.094030 3.786330 7.508160
H 9.066180 3.803710 7.523750
H 6.648020 2.975070 8.205990
H 6.663250 2.992780 8.187220
H 7.574560 3.400440 8.244420
H 7.555200 3.391810 8.263410
H 6.904930 3.462610 9.315990
H 6.919200 3.492010 9.292240
H 6.055080 3.014550 8.980690
H 7.858580 3.813380 9.117910
H 7.877690 3.829860 9.095090
H 8.673740 3.937590 8.442070
H 8.649650 3.938230 8.461910
H 9.431430 0.668223 31.288100
H 9.446830 0.659889 31.284800
H 7.498530 1.134880 33.010500
H 7.499290 1.108230 33.041000
H 7.540520 2.297220 32.582800
H 7.531840 2.277130 32.630700
H 8.178370 1.265320 32.324000
H 8.185720 1.278080 32.298400
H 8.298970 2.182690 31.887500
H 8.283460 2.176570 31.925900
H 8.996730 1.583390 31.412400
H 8.978760 1.587670 31.434500
H 7.558610 7.812590 1.959120
H 7.447330 8.625230 1.327490
H 7.815100 9.505820 0.926195
H 8.341260 8.752030 1.757310
H 8.899280 9.548620 1.524960
H 9.235180 8.878830 2.187140
H 8.677160 8.082240 2.419500
H 8.563380 10.218400 0.862774
H 9.491670 10.572100 1.154220
H 9.793210 9.675420 1.954790
H 10.351200 10.472000 1.722430
H 10.911700 9.945070 2.415160
H 8.119130 7.285650 2.651850
H 8.978700 7.185600 3.220070
H 9.906990 7.539250 3.511510
H 9.571080 8.209040 2.849330
H 10.655300 8.251840 3.448090
H 10.129100 9.005630 2.616970
H 11.023000 9.132430 3.046800
H 10.227000 20.291500 0.778861
H 11.374000 19.822300 0.775560
H 9.280500 20.604000 0.698299
H 7.983830 21.616200 1.240400
H 8.930280 21.303700 1.320970
H 9.526520 21.690800 2.024200
H 8.379470 22.160000 2.027500
H 9.876740 20.991100 1.401530
H 10.823200 20.678600 1.482090
H 10.473000 21.378300 2.104760
H 11.069200 21.765500 2.807990
H 10.160800 22.246100 2.932540
H 10.102500 21.623800 6.718510
H 10.194100 21.293800 7.695490
H 10.524600 21.443500 8.665060
H 11.005600 22.032600 9.367440
H 10.805300 22.263600 8.166470
H 8.684260 20.216800 32.546100
H 9.592650 19.736100 32.421600
H 10.577200 19.591800 32.707200
H 8.095390 20.904900 33.047500
H 9.176310 22.390500 2.646860
H 10.274400 22.344900 5.995920
H 10.663800 23.264000 5.721320
H 11.166200 24.134800 5.968300
H 11.366500 23.903800 7.169270
H 10.874800 23.173900 6.694600
H 10.594200 22.353700 7.193190
H 11.085900 23.083700 7.667870
H 11.296900 22.993600 8.641140
H 8.877650 23.992700 10.595100
H 9.584080 23.623700 11.255800
H 7.483670 25.424800 10.669600
H 8.376860 24.863900 11.320300
H 8.108840 24.651900 10.380600
H 7.169630 26.104200 11.384800
H 10.038900 23.643800 12.185600
H 10.120100 24.047700 13.135400
H 9.114470 24.349800 11.758000
H 7.907250 25.590100 11.822500
H 8.644870 25.075900 12.260100
H 8.175260 25.802100 12.762200
H 8.912880 25.287900 13.199900
H 9.382490 24.561800 12.697700
H 7.250890 26.508100 12.334600
H 7.705660 26.528200 13.264400
H 9.180890 25.499900 14.139600
H 9.806070 24.727100 13.850600
H 8.412090 26.159200 13.925100
H 7.845960 31.115300 0.979836
H 7.863090 31.082600 0.967343
H 7.167800 31.671500 1.458750
H 7.148200 31.714600 1.454910
H 7.385280 32.781300 0.870331
H 7.394200 32.748000 0.888115
H 6.698100 32.638100 1.582510
H 6.715120 32.590900 1.605130
H 6.675620 31.174300 20.409900
H 6.658820 31.165300 20.465000
H 7.146380 30.181600 22.136600
H 6.411330 30.859400 22.151700
H 6.411700 31.021000 21.611000
H 7.121500 30.540300 21.096200
H 7.092310 30.539800 21.166900
H 7.187000 30.163800 22.058300
H 6.167550 31.351200 21.315900
H 6.854570 30.145800 23.038600
H 6.806540 30.186600 23.114500
H 6.163840 30.553500 23.838400
H 6.213280 30.491100 23.774300
H 6.278240 30.823700 22.582200
H 8.604410 31.000800 32.835600
H 8.614710 30.982000 32.813600
H 9.528680 32.210700 31.538900
H 8.752350 33.062200 32.005100
H 9.520190 32.215600 31.526000
H 7.968190 31.993900 33.120300
H 7.959210 32.019900 33.120000
H 8.073280 32.905100 32.722100
H 8.072470 32.924500 32.709200
H 9.220330 31.401700 32.106500
H 9.221250 31.396800 32.084400
H 8.647260 32.150900 32.403300
H 8.646400 32.163100 32.407900
H 8.759650 33.067700 31.997000
H 15.277000 11.368700 7.512920
H 15.242200 11.387800 7.492540
H 16.091200 10.881300 7.185250
H 16.125200 10.868300 7.193830
H 16.308700 13.595900 5.927130
H 16.733900 13.336800 5.779880
H 16.371300 14.493300 5.521300
H 16.381200 14.500800 5.507750
H 15.493400 14.522400 6.039790
H 14.659600 12.243500 7.492750
H 14.689000 12.220700 7.522440
H 14.518800 13.196000 7.219830
H 14.499500 13.219200 7.185830
H 16.236200 12.691000 6.346500
H 16.627300 11.767100 6.504110
H 15.383500 12.938400 6.788690
H 15.447900 12.467300 6.919630
H 15.762600 12.024800 6.935240
H 16.163700 11.786100 6.765880
H 16.248200 12.680800 6.357560
H 14.812100 14.033300 6.686170
H 14.804600 14.053300 6.654000
H 15.520400 13.372100 6.500250
H 15.869200 13.594500 6.211010
H 15.490100 14.508100 6.064470
H 15.916700 16.841300 9.000850
H 15.902700 16.860000 8.991600
H 16.160200 16.021500 10.788900
H 16.173400 16.011000 10.802100
H 15.794200 16.332300 9.893950
H 15.780300 16.347600 9.882750
H 11.769600 20.366100 1.562650
H 11.658100 21.077300 2.306570
H 16.791600 16.937100 9.475460
H 16.508000 17.401600 8.362090
H 16.494500 17.421500 8.354230
H 16.778700 16.951500 9.465160
H 14.890200 21.612100 9.162840
H 14.873400 21.662600 9.155140
H 14.770500 22.285700 8.385910
H 15.946800 22.072600 9.619530
H 15.680100 22.222000 9.225220
H 15.414400 21.296900 9.958460
H 16.240700 21.346900 10.580200
H 15.433100 21.265300 9.973190
H 16.362000 22.085100 9.943730
H 16.253900 21.338300 10.599800
H 11.997600 27.680900 2.692630
H 12.201500 27.705400 3.707310
H 11.958700 27.696400 2.690990
H 12.168000 27.705300 3.704800
H 15.106300 23.105700 7.850590
H 15.827400 23.897300 7.707570
H 15.807500 23.852400 7.700320
H 11.647100 24.724000 6.670680
H 11.977700 24.873600 7.640250
H 11.577600 23.813700 8.142550
H 11.897300 23.822500 9.339820
H 11.508000 22.903400 9.614420
H 14.762700 22.346000 8.385430
H 15.111900 23.163900 7.855580
H 16.479100 22.848200 9.280600
H 16.578100 23.578800 8.631480
H 15.620900 22.597100 8.833010
H 16.153300 23.372800 8.494080
H 15.788200 22.968800 8.569100
H 16.470000 22.831900 9.287600
H 12.069200 24.543700 8.617230
H 16.717600 24.349600 7.981040
H 16.686200 24.325600 7.975360
H 16.805000 22.323700 10.067100
H 11.942600 28.161500 1.777380
H 11.909100 28.188200 1.781390
H 12.051100 29.018500 1.206800
H 12.032500 29.049000 1.219740
H 12.302100 29.292200 2.135250
H 12.293700 29.307200 2.149840
H 12.294200 30.022200 1.133770
H 12.295900 30.048200 1.156520
H 12.591800 30.241600 2.344310
H 12.579800 30.234800 2.320780
H 12.628700 30.918000 1.608680
H 12.606600 30.903600 1.577870
H 12.904600 31.426600 2.420090
H 12.275300 28.623400 2.878160
H 12.256800 28.630800 2.885460
H 12.526300 28.897200 3.806620
H 12.517900 28.889000 3.815560
H 12.553000 29.566000 3.063700
H 12.554900 29.565300 3.079940
H 12.830800 30.508500 3.249240
H 12.853000 30.499800 3.274410
H 12.804000 29.839700 3.992150
H 12.816000 29.823500 4.010030
H 12.941700 31.425300 2.455070
H 13.108500 31.451100 3.434770
H 13.151100 31.434300 3.468880
H 12.499500 28.228400 4.549530
H 12.481000 28.212600 4.551190
H 12.813800 29.082400 5.003350
H 12.811900 29.109800 4.993630
H 13.163500 30.970400 4.350020
H 13.200600 30.942400 4.378480
H 13.077200 30.081600 4.940130
H 13.054900 30.113500 4.920610
H 21.162500 4.101200 3.099050
H 21.148100 4.112270 3.130690
H 21.501200 3.390690 3.783670
H 21.517300 3.380390 3.751930
H 20.072700 5.787620 3.321520
H 20.079000 5.771400 3.289500
H 20.625300 4.989600 2.961530
H 20.636000 4.976370 2.929790
H 20.569900 4.841590 3.948940
H 20.579000 4.826820 3.916860
H 21.007900 4.042140 4.360000
H 21.019600 4.028830 4.327940
H 21.605400 3.007080 4.713500
H 21.590000 3.018230 4.745510
H 20.952500 3.894130 5.347410
H 20.962600 3.879290 5.315010
H 21.403300 3.081300 5.726090
H 21.390500 3.094680 5.758470
H 20.459200 4.545570 5.923740
H 20.081300 5.475270 4.492870
H 20.076600 5.493040 4.525270
H 20.021200 5.345030 5.512670
H 20.465000 4.527740 5.891020
H 20.024300 5.325720 5.479940
H 20.514500 4.693580 4.936340
H 20.522000 4.677280 4.903940
H 20.964900 3.583160 6.518380
H 20.956400 3.599550 6.551150
H 19.881500 5.253360 6.708830
H 20.403800 4.397570 6.911140
H 20.407900 4.378190 6.878090
H 19.880900 5.274900 6.741990
H 19.527800 5.996470 6.089010
H 19.526600 5.974170 6.055950
H 21.268000 5.135720 27.044900
H 20.009100 4.624180 29.525400
H 20.074700 5.840720 29.298400
H 20.468200 4.277620 28.664600
H 20.471400 5.273700 28.576600
H 20.929000 4.464850 27.756700
H 20.871300 5.702740 27.766700
H 19.674800 5.411670 30.108300
H 19.638600 6.292490 4.114200
H 19.640700 6.273260 4.081790
H 19.439100 6.368940 5.127170
H 19.438500 6.347480 5.094390
H 21.997000 8.968440 5.916090
H 17.667800 11.328700 6.039010
H 17.684400 11.328300 6.028950
H 22.076000 8.107980 7.417150
H 21.490800 8.797810 7.843380
H 21.602000 9.109760 6.862540
H 16.979000 10.859600 6.653220
H 17.006400 10.853500 6.650660
H 22.155000 7.247520 8.918200
H 21.693200 8.116180 8.595800
H 20.874500 6.698820 27.678600
H 21.394400 6.110450 26.719800
H 21.274400 7.127870 26.868700
H 20.940000 7.915370 27.451600
H 20.077900 6.836800 29.210300
H 20.477800 7.265850 28.400400
H 20.474600 6.269770 28.488500
H 20.481000 8.261930 28.312400
H 20.020200 8.074690 29.220300
H 19.681100 7.403830 29.932200
H 19.554700 6.429100 30.257200
H 17.973000 12.162800 5.507180
H 17.977600 12.165600 5.495300
H 17.812800 13.138500 5.200260
H 17.807400 13.140900 5.192690
H 17.024500 12.914700 5.773380
H 17.112900 12.423200 5.926430
H 17.230200 13.994200 5.200470
H 17.219500 13.992900 5.202200
H 16.952000 12.009900 6.192760
H 16.940400 15.969100 11.467200
H 16.907400 16.532300 10.363800
H 16.919900 16.521900 10.376100
H 17.783400 16.623800 10.837400
H 17.794900 16.617700 10.850700
H 16.952600 15.963500 11.481900
H 17.923200 16.202500 11.751300
H 17.912100 16.204500 11.736000
H 18.814700 16.664500 11.523200
H 18.825000 16.664000 11.538000
H 21.760300 21.983400 2.507420
H 21.768700 22.003100 2.568190
H 18.401900 17.553800 9.513650
H 17.538200 17.448000 9.049440
H 17.397200 17.881600 8.141430
H 17.409800 17.863100 8.148830
H 18.368800 18.117000 8.410220
H 18.380400 18.102200 8.418200
H 17.525900 17.462300 9.040080
H 18.413100 17.543800 9.524050
H 19.159700 18.054700 9.098030
H 19.149100 18.064600 9.088570
H 17.654600 17.043000 9.938730
H 17.666500 17.032800 9.950060
H 18.530600 17.134500 10.412300
H 18.541500 17.128600 10.424700
H 19.416400 17.224400 10.899300
H 19.528900 17.738500 9.994720
H 19.538900 17.733400 10.006200
H 19.406500 17.226000 10.885900
H 17.130900 21.799100 10.853600
H 17.132600 21.811500 10.874900
H 22.092300 23.954000 2.427030
H 22.253500 24.957500 2.379610
H 22.258300 24.939200 2.386840
H 21.926300 22.968700 2.467230
H 21.930300 22.987900 2.505330
H 22.091900 23.972700 2.442470
H 20.973300 23.235700 3.927530
H 20.958500 23.189700 3.886490
H 21.525400 23.571800 3.156760
H 21.532600 23.604200 3.185000
H 21.246000 22.375000 3.316070
H 21.259500 22.410000 3.372450
H 20.986900 24.258900 4.084680
H 20.974800 24.209100 4.065860
H 21.290500 25.160200 3.806110
H 21.296600 25.205400 3.801810
H 21.691400 24.557100 3.116570
H 21.694200 24.589000 3.122140
H 21.819300 25.821500 3.154700
H 21.821100 25.788100 3.176830
H 17.011500 23.623900 8.941670
H 18.084900 24.033800 9.406060
H 18.049900 24.051800 9.412370
H 17.260000 23.441900 9.349990
H 17.543900 24.399500 8.602740
H 17.507000 24.398600 8.602010
H 17.337400 23.099300 9.728180
H 17.151900 22.695100 10.006100
H 17.833800 22.558200 10.724600
H 18.169600 23.378200 10.189300
H 18.195600 23.350400 10.175800
H 17.846400 22.532500 10.705600
H 23.720200 5.726540 7.119290
H 23.831400 6.038490 6.138450
H 23.325300 5.867860 8.065740
H 23.167300 7.588790 5.063630
H 23.629000 6.720120 5.386020
H 22.914200 7.503470 6.027270
H 22.569900 8.411730 5.257640
H 22.993200 6.643000 7.528320
H 23.246300 6.728320 6.564680
H 22.661100 7.418150 6.990910
H 22.329000 8.193300 6.453500
H 22.408000 7.332830 7.954560
H 22.752300 6.424570 8.724180
H 22.363500 22.119800 1.677240
H 22.364500 22.123900 1.730250
H 26.893600 22.240600 3.768300
H 25.562400 21.384200 4.990730
H 24.897300 21.728700 5.705440
H 26.293000 21.571600 4.281690
H 22.894100 22.747700 1.047960
H 22.887200 22.740100 1.083140
H 23.209900 23.698800 0.788206
H 23.196900 23.686600 0.800265
H 22.493200 23.350800 1.737500
H 22.489600 23.356400 1.762810
H 23.226100 24.718300 0.967574
H 23.210500 24.709700 0.957419
H 22.938600 25.532900 1.538000
H 22.924300 25.535400 1.512490
H 22.659200 24.336100 1.697300
H 22.651200 24.341200 1.699950
H 22.424400 25.924500 2.346650
H 22.415100 25.942400 2.316750
H 27.203000 23.211900 3.588140
H 27.138600 24.225300 3.789470
H 25.684900 22.376600 5.001310
H 25.807300 23.369000 5.011890
H 25.141700 22.940800 5.623110
H 25.264200 23.933200 5.633690
H 26.350500 22.804800 4.390100
H 26.473000 23.797200 4.400680
H 25.321700 25.166400 5.742100
H 25.929800 24.361400 5.022480
H 26.717400 25.009300 4.318350
H 26.052300 25.353800 5.033060
H 24.476100 22.512700 6.234320
H 24.411600 23.526100 6.435650
H 24.721100 24.497400 6.255480
H 27.286200 24.955200 8.561270
H 27.300100 24.944800 8.499060
H 27.070600 25.173500 9.550000
H 27.065000 25.163400 9.483260
H 27.317700 25.642900 10.439000
H 27.292300 25.636800 10.375400
H 27.906700 25.046500 7.737700
H 27.934600 25.039500 7.686540
H 28.798500 25.422200 7.263430
H 28.766000 25.423100 7.299980
H 29.633700 25.983900 7.365380
H 29.660200 25.990300 7.343090
H 28.352200 25.578700 8.457690
H 28.362600 25.576900 8.413170
H 27.934100 25.642100 9.363840
H 27.927800 25.638800 9.311530
H 29.215700 26.047300 8.271530
H 29.225400 26.052200 8.241450
H 28.797600 26.110800 9.177680
H 28.790700 26.114200 9.139810
H 30.289000 26.591500 7.904180
H 30.277400 26.578700 7.916390
H 29.661100 26.579400 8.991520
H 29.653500 26.589600 8.968080
H 30.524600 27.048100 8.805360
H 30.516300 27.064900 8.796350
H 28.355900 26.176200 10.038200
H 27.961400 26.237700 10.990000
H 29.243000 26.642900 9.897670
H 27.921100 26.238100 10.936500
H 28.782900 26.806200 11.016200
H 29.218700 26.651500 9.866440
H 28.829100 26.798500 11.055400
H 28.379500 26.174200 10.083800
H 29.688400 27.175000 10.617700
H 30.309000 27.266400 9.794100
H 30.281200 27.283600 9.780560
H 29.646700 27.188900 10.593100
H 3.034630 9.390580 16.587300
H 2.101130 11.134500 16.292000
H 2.571290 10.219600 16.175200
H 3.367000 8.869610 17.417800
H 3.479350 8.796270 18.444300
H 2.135280 11.375400 18.514700
H 2.148000 11.215100 17.527800
H 2.956430 9.704880 17.783500
H 2.545850 10.540200 18.149100
H 2.558570 10.379900 17.162100
H 3.341560 9.190190 19.391700
H 2.520420 10.860700 20.123000
H 2.533130 10.700400 19.136000
H 2.990570 9.945840 20.006200
H 2.943710 9.865170 18.770400
H 1.612360 12.284000 17.853800
H 1.750140 11.890100 16.906400
H 1.724700 12.210700 18.880300
H 2.057080 11.689700 19.710900
H 31.736400 12.822900 10.653000
H 30.907900 13.602100 11.145200
H 30.999100 13.371600 10.176400
H 29.588500 14.659400 10.769300
H 30.212900 14.043700 10.219000
H 30.202600 14.246000 11.441600
H 32.340200 12.611900 12.547900
H 31.522000 13.188800 11.817500
H 32.227300 12.544900 11.521000
H 29.293200 15.053500 11.679900
H 30.111400 14.476600 12.410300
H 30.816700 13.832700 12.113900
H 30.725500 14.063300 13.082600
H 31.430800 13.419400 12.786200
H 29.406100 15.120500 12.706800
H 32.044900 13.006000 13.458500
H 29.897000 14.842500 13.574800
H 30.634300 14.293800 14.051400
H 31.420500 13.621700 14.008800
H 3.221850 5.190730 29.180300
H 4.129330 4.798410 28.873200
H 4.364760 5.621710 29.389600
H 5.162970 4.847300 28.842900
H 5.323000 5.884660 29.501700
H 2.683700 5.919130 29.681900
H 2.659070 6.788440 30.243500
H 3.641950 6.182070 29.794000
H 3.154570 7.565730 30.714700
H 3.877380 7.005380 30.310400
H 4.600190 6.445020 29.906100
H 4.835620 7.268320 30.422500
H 5.558440 6.707960 30.018100
H 5.978530 7.699310 30.631800
H 4.037410 8.042730 30.969200
H 5.071050 8.091620 30.938900
H 6.045820 5.324300 29.097400
H 6.516680 6.970910 30.130200
H 6.541310 6.101590 29.568600
H 2.922040 16.829200 27.523000
H 2.887180 16.832100 27.528500
H 2.904000 16.821600 27.562300
H 3.795040 16.606600 27.971900
H 3.826260 16.600200 27.972000
H 3.809540 16.595000 28.009900
H 4.508300 16.792100 28.699000
H 4.521350 16.781900 28.738000
H 4.534760 16.781600 28.704700
H 2.047390 17.401000 27.515000
H 2.064400 17.407300 27.477800
H 2.028000 17.408200 27.487400
H 2.258260 18.160400 28.444900
H 2.277900 18.158100 28.468700
H 2.289500 18.155600 28.439700
H 1.447700 18.180400 27.859700
H 1.483140 18.179500 27.848800
H 1.469220 18.178000 27.880800
H 2.978000 17.486200 28.279300
H 3.008950 17.480500 28.276800
H 2.995290 17.480000 28.309400
H 3.068810 18.140400 29.030200
H 3.086570 18.138300 29.056600
H 3.095860 18.131800 29.030600
H 3.815310 17.456700 28.867700
H 3.788560 17.466200 28.864600
H 3.803960 17.460100 28.897300
H 4.857720 17.324700 29.524800
H 4.848720 17.332300 29.551500
H 4.835850 17.338800 29.514800
H 1.301780 18.941900 28.545600
H 1.629330 19.488700 29.361400
H 1.656960 19.482100 29.356400
H 1.651790 19.494600 29.375100
H 1.324430 18.944300 28.561600
H 1.334010 18.938900 28.536400
H 2.349070 18.814500 29.195800
H 2.369180 18.816500 29.215800
H 2.376410 18.806900 29.193500
H 3.879370 18.120300 29.615500
H 3.895240 18.118400 29.644400
H 3.902220 18.108000 29.621400
H 4.703920 18.098600 30.232300
H 4.708580 18.084100 30.212300
H 4.689930 18.100300 30.200700
H 2.363610 19.681600 30.103200
H 2.365470 19.663400 30.089100
H 2.342590 19.674100 30.088500
H 3.159630 18.794500 29.781100
H 3.182770 18.783100 29.784300
H 3.177850 18.796600 29.803700
H 3.269140 19.454900 30.550800
H 3.269680 19.434400 30.538100
H 3.250440 19.448600 30.532000
H 4.109630 18.872500 30.573000
H 4.127320 18.856300 30.583300
H 4.125750 18.875500 30.598100
H 6.661110 21.606100 24.038300
H 6.653270 21.600000 24.060400
H 6.704600 20.346000 25.590700
H 6.694470 20.354300 25.624500
H 6.709480 20.769400 24.646000
H 6.700090 20.768900 24.675900
H 6.602230 21.546100 25.297500
H 6.610110 21.540600 25.274800
H 6.510750 22.311800 25.903500
H 6.647780 20.449400 26.619200
H 6.637910 20.467200 26.652000
H 6.545560 21.077500 27.483100
H 6.571130 21.395200 26.285500
H 6.479900 22.151800 26.890100
H 6.579260 21.380600 26.261300
H 6.473270 22.172400 26.907100
H 6.554240 21.051800 27.455900
H 6.449050 21.991800 27.876700
H 6.442170 22.021600 27.895100
H 6.566540 22.624900 23.943000
H 6.572440 22.631800 23.930300
H 6.541600 22.471800 24.916900
H 6.467250 23.571900 24.351000
H 6.463150 23.568900 24.355000
H 6.442230 23.243000 25.545600
H 6.437580 23.251200 25.552600
H 6.535450 22.474100 24.931000
H 6.504360 22.323200 25.919000
H 6.373710 24.174300 25.187700
H 6.370810 24.179200 25.186100
H 6.308620 23.877600 27.162200
H 6.406490 23.100400 26.540600
H 6.312010 23.854200 27.160900
H 6.411380 23.083000 26.532200
H 6.316890 24.277600 26.216300
H 6.314240 24.292200 26.213600
H 6.360380 23.017600 27.768700
H 6.355450 23.046500 27.777700
H 15.216800 5.875680 17.358300
H 15.246700 5.778910 17.377100
H 15.948300 5.024270 17.477100
H 16.478700 5.871970 17.473600
H 15.905200 5.108330 17.453300
H 16.885200 4.790470 17.554300
H 14.945000 7.589620 12.857000
H 14.907500 7.627920 12.838800
H 15.813300 7.034080 12.952700
H 15.772200 7.063040 12.909200
H 16.843300 6.989430 13.046700
H 16.802400 7.007600 12.994100
H 14.471100 8.507200 12.785200
H 14.440100 8.550890 12.801900
H 14.518500 9.540960 12.756500
H 14.495100 9.584650 12.808400
H 16.596300 7.985970 12.978900
H 16.630000 7.965100 12.996400
H 15.648800 8.296130 12.901200
H 15.680900 8.265200 12.901600
H 15.467600 9.240870 12.851400
H 16.390100 8.964330 12.963700
H 16.416800 8.940770 12.946200
H 15.442600 9.274490 12.886000
H 15.074600 10.413900 12.778700
H 15.058000 10.452200 12.856400
H 15.977800 10.921100 12.933200
H 16.203500 9.916450 12.896000
H 16.183900 9.942700 12.948400
H 15.990300 10.892100 12.845700
H 15.004600 6.886930 17.294500
H 15.017300 6.785630 17.302000
H 16.013200 6.752660 17.386100
H 16.543600 7.600360 17.382600
H 16.105300 6.330790 17.416700
H 16.159600 7.328500 17.377100
H 15.321700 7.774680 17.272000
H 15.325300 7.871100 17.279100
H 16.078100 8.481040 17.295100
H 16.093200 8.564490 17.316200
H 17.940100 4.958310 17.645200
H 17.894400 5.007290 17.634000
H 17.474600 5.839000 17.557600
H 18.696500 5.664670 17.668200
H 18.662200 5.700680 17.671100
H 16.934100 4.723910 17.575200
H 16.939500 5.788180 17.514700
H 17.722200 7.476480 13.070900
H 17.759000 7.467650 13.113700
H 18.315100 8.340590 13.135900
H 18.285000 8.344020 13.119000
H 18.362500 9.374350 13.107200
H 18.340100 9.377770 13.125400
H 17.337600 8.654180 13.041300
H 17.365900 8.640680 13.041000
H 17.131400 9.632540 13.026100
H 17.152700 9.616350 12.990800
H 17.872700 10.300700 13.088500
H 17.888600 10.291900 13.035400
H 17.008000 10.865600 13.018200
H 17.020300 10.847500 12.939700
H 21.756200 8.864990 14.933300
H 21.277900 9.043130 15.834000
H 22.232200 8.841250 16.598400
H 21.304100 9.098300 16.867400
H 17.882300 7.241000 17.533500
H 18.005000 6.686700 17.554200
H 17.539500 7.567380 17.466600
H 17.048000 7.783600 17.435500
H 16.993800 6.785890 17.475100
H 17.009100 6.719680 17.470100
H 17.828000 6.243290 17.573100
H 18.771500 7.660440 17.563200
H 18.770700 7.696100 17.591900
H 19.000900 6.653720 17.638200
H 18.983000 6.684860 17.655700
H 18.069900 8.415080 17.463200
H 18.082400 8.463460 17.496900
H 17.084100 8.715440 17.365000
H 17.102300 8.781310 17.395900
H 21.827600 9.015720 17.756700
H 22.000300 11.387600 24.009700
H 22.002300 11.430100 23.990700
H 21.816700 12.530000 20.291600
H 21.845800 12.487800 20.309300
H 20.506200 12.404500 21.797100
H 20.519800 12.349200 21.800000
H 22.115400 12.204300 21.188600
H 20.990000 12.507800 20.891500
H 20.967700 12.558300 20.883300
H 21.709600 12.174400 21.500600
H 21.460100 12.141600 21.941400
H 20.555900 12.109800 22.788300
H 20.561200 12.054400 22.791500
H 21.103600 11.753200 23.591200
H 21.103100 11.702400 23.600300
H 22.214700 11.614300 23.059700
H 21.758800 11.815900 22.838400
H 21.495100 11.947700 22.450600
H 23.612500 8.350900 14.395200
H 22.610700 8.611620 14.406600
H 24.493200 8.152690 14.902000
H 23.386400 8.467550 15.362300
H 23.160400 8.584200 16.329300
H 22.458300 8.724600 15.631300
H 24.088500 8.327160 16.060300
H 25.016700 8.070110 15.791300
H 25.042900 8.125280 16.824700
H 22.934300 8.700860 17.296400
H 22.708300 8.817510 18.263500
H 23.710100 8.556790 18.252100
H 23.862500 8.443810 17.027400
H 24.564600 8.303420 17.725400
H 23.868200 11.174200 23.327900
H 23.860500 11.199000 23.288100
H 23.012400 11.194200 23.910000
H 23.011400 11.227300 23.879700
H 24.338500 11.332800 22.419300
H 24.321900 11.352800 22.374200
H 26.397800 7.684650 25.599700
H 25.850100 9.574590 25.242100
H 26.313200 8.648750 25.232200
H 25.132600 10.214100 25.626700
H 24.668600 6.797780 27.654700
H 25.448300 6.615990 26.998300
H 25.174500 7.560960 26.819500
H 26.081200 6.940600 26.246200
H 23.403400 9.327220 27.681700
H 25.375400 9.040260 25.941400
H 24.626800 9.450900 26.461900
H 24.152000 8.916570 27.161200
H 25.649200 8.095290 26.120200
H 24.900600 8.505930 26.640700
H 24.425900 7.971600 27.340000
H 23.720000 10.071300 27.035300
H 24.352900 10.395900 26.283100
H 23.951100 7.437270 28.039400
H 23.488000 8.363110 28.049200
H 22.825800 12.327200 20.180700
H 22.858000 12.294500 20.209600
H 23.755200 11.979600 20.619000
H 23.724600 12.004100 20.580200
H 22.414100 11.878600 22.085700
H 22.429100 11.841000 22.109700
H 22.643500 12.067800 21.159600
H 23.069300 11.941400 21.332900
H 23.368000 11.615700 22.229900
H 23.363100 11.734300 21.768700
H 24.272200 11.647500 21.383100
H 24.297100 11.627700 21.427800
H 22.712700 11.553000 22.982700
H 23.148700 11.507600 22.718800
H 13.584400 27.572100 26.997800
H 14.003400 27.410900 26.064900
H 13.584700 27.612400 27.010400
H 14.002100 27.440900 26.078700
H 14.310400 28.579800 25.790600
H 14.314100 28.605900 25.793500
H 14.841700 28.574600 24.671000
H 14.844400 28.588100 24.673600
H 14.596900 29.484700 25.475800
H 14.604200 29.506600 25.470200
H 14.463600 27.777900 25.213300
H 14.463200 27.798100 25.223400
H 15.043500 29.599400 24.576700
H 15.036500 29.587600 24.583500
H 14.730200 31.191500 25.738300
H 14.745200 31.215100 25.717000
H 14.995700 30.545400 24.974200
H 15.007200 30.560900 24.958600
H 13.725600 29.320900 27.257200
H 13.717700 29.278900 27.260300
H 13.870800 28.476900 26.682900
H 13.874800 28.513100 26.687000
H 14.164900 29.413700 26.363700
H 14.157300 29.381800 26.368000
H 14.455100 30.314400 26.040300
H 14.443700 30.286600 26.053100
H 13.851000 30.985700 27.522700
H 13.866600 31.029400 27.504000
H 14.004100 30.183700 26.945400
H 14.015800 30.221600 26.933800
H 14.311200 31.352600 26.671100
H 14.327700 31.386600 26.648700
H 13.278100 29.176000 28.152500
H 13.286400 29.228100 28.150700
H 13.322700 28.266600 27.768800
H 13.318900 28.218100 27.761900
H 13.485500 30.239400 28.053800
H 13.472800 30.189000 28.065000
H 20.526000 25.182700 22.216900
H 21.624200 24.705800 21.897100
H 21.183500 25.587800 21.581700
H 20.390400 26.252700 21.606700
H 19.457500 26.522400 21.965400
H 18.553500 23.967200 24.122500
H 20.074000 23.905100 23.295500
H 20.279600 23.032700 23.738800
H 19.346600 23.302300 24.097500
H 21.102300 23.230500 23.142500
H 21.594500 23.842900 22.468400
H 18.142500 25.712100 23.235800
H 18.112800 24.849300 23.807100
H 19.005500 25.244800 23.044000
H 19.868500 24.777500 22.852100
H 19.211000 24.372400 23.487300
H 19.663000 25.649900 22.408700
H 20.731500 24.310200 22.660200
H 18.634700 26.324500 22.561700
H 21.677300 1.957220 15.038700
H 20.163800 0.755302 15.553000
H 20.745500 1.540750 15.211700
H 21.399000 0.852232 15.525900
H 21.395400 30.985400 16.599800
H 20.088300 32.362400 15.971300
H 22.052600 32.714800 15.840100
H 21.070500 32.538600 15.905700
H 20.539100 31.512900 16.354500
H 21.724000 31.850100 16.220000
H 22.709700 1.893120 15.080500
H 22.381200 1.028420 15.460300
H 23.566100 1.365630 15.325800
H 26.738100 30.773900 14.160100
H 26.719000 30.777500 14.159200
H 27.227100 31.326300 13.433800
H 27.214600 31.328200 13.436100
H 27.191200 31.500700 14.663100
H 27.452700 31.777000 14.297500
H 22.427800 30.921300 16.641600
H 23.359700 31.337700 16.468600
H 26.476500 30.614300 15.152300
H 26.501000 30.611100 15.154500
H 26.552000 30.882500 16.149400
H 26.579400 30.881400 16.150800
H 24.016900 33.067100 15.709000
H 23.941300 32.123200 16.127300
H 22.706100 32.026300 16.154400
H 23.034700 32.891000 15.774600
H 27.579800 32.276600 16.162000
H 27.663300 32.224000 15.166900
H 27.678300 32.227700 15.161100
H 27.315300 31.870100 16.021500
H 26.952200 31.512500 16.881800
H 26.925300 31.510200 16.883200
H 27.107700 31.553300 15.658200
H 27.089700 31.419400 15.157800
H 27.519600 32.335300 17.151800
H 27.496300 32.329100 17.157100
H 28.774500 1.014530 14.184500
H 28.777300 1.022980 14.171400
H 28.850000 1.282720 15.181600
H 28.618600 1.130510 16.162100
H 28.855700 1.293330 15.167700
H 28.607500 1.119580 16.174700
H 27.837100 32.120200 13.170400
H 27.830300 32.119000 13.176800
H 28.404500 32.942900 13.440400
H 28.041400 32.585300 14.300700
H 28.401300 32.937900 13.450700
H 28.218900 32.894800 14.675700
H 27.746800 32.171500 14.171800
H 27.903900 32.678500 16.024700
H 28.129500 33.129200 16.888400
H 28.267000 33.036100 15.164400
H 28.135400 32.947300 15.670800
H 28.112000 33.119900 16.897800
H 24.003300 26.537600 27.692000
H 25.009100 26.703700 27.511800
H 23.206500 26.489800 28.351200
H 23.807800 26.776200 29.396300
H 22.832200 26.573200 29.312800
H 24.393300 26.758400 28.585900
H 25.368900 26.961500 28.669400
H 24.783400 26.979300 29.479800
H 25.954400 26.943700 27.859000
H 26.586000 27.193200 28.640400
H 23.612300 27.014800 31.100600
H 22.980700 26.765300 30.319100
H 25.758900 27.182300 29.563300
H 25.563400 27.420900 31.267600
H 24.197800 26.997100 30.290200
H 25.173400 27.200100 30.373700
H 26.734500 27.385400 29.646800
H 26.360200 27.468700 30.608400
H 24.557600 27.254800 31.447700
