475
Atoms. Timestep: 0
H 8.035280 1.364360 12.716700
H 8.055830 1.423930 12.741700
H 9.046870 1.334580 12.841400
H 9.175740 0.936660 12.487700
H 9.141630 1.628750 13.208800
H 10.037900 1.245220 12.941100
H 10.016600 1.220340 12.948700
H 10.891600 0.811936 12.688600
H 11.028900 1.155860 13.040800
H 8.266620 2.037150 13.468900
H 8.311330 2.092930 13.489400
H 9.533690 1.890000 13.515700
H 8.966870 2.491080 14.081600
H 9.982520 1.912430 13.669800
H 10.857500 1.504020 13.409700
H 10.524700 1.800650 13.615300
H 10.948200 2.347060 14.313600
H 11.011500 2.356070 14.289600
H 9.029470 2.534780 14.090200
H 9.948410 2.604520 14.390800
H 10.017800 2.631100 14.383100
H 9.564130 29.280600 7.700780
H 9.521720 29.274100 7.694450
H 9.662810 30.296300 7.611160
H 9.419700 31.271700 7.823920
H 9.358800 31.263500 7.821220
H 9.716460 30.301300 7.618320
H 7.312210 28.264800 9.143590
H 7.327440 28.294900 9.124260
H 6.661100 28.954900 9.562840
H 6.644560 28.917600 9.590720
H 8.973340 28.470600 8.048770
H 9.003510 28.483000 8.049200
H 8.083140 29.095800 8.642580
H 8.112610 29.117700 8.631810
H 8.164600 28.101100 8.579190
H 8.184820 28.122200 8.570230
H 7.350750 29.534100 9.128110
H 7.323120 29.504100 9.148350
H 7.278540 30.529600 9.189680
H 7.241660 30.498800 9.211730
H 6.516670 30.945900 9.685990
H 8.040400 30.113300 8.693380
H 8.001680 30.090500 8.705970
H 7.968190 31.108800 8.754950
H 8.730050 30.692500 8.258650
H 8.680240 30.677000 8.263600
H 8.761700 29.682300 8.200210
H 8.802260 29.696900 8.197080
H 7.920220 31.085200 8.769360
H 7.838770 32.079900 8.832750
H 7.895970 32.104300 8.816530
H 7.077290 31.743500 9.337560
H 7.030030 31.710500 9.363170
H 8.691160 31.916300 8.268360
H 8.753360 31.931600 8.262500
H 6.340550 29.884700 9.800790
H 6.481640 30.907000 9.717500
H 6.364330 29.925200 9.768440
H 10.058000 32.222300 11.499200
H 9.085040 32.456500 11.583800
H 8.334840 33.015900 12.026800
H 9.064270 32.497300 11.592600
H 8.331430 33.070000 12.047500
H 9.551090 33.052700 12.266900
H 10.050700 32.891200 12.227600
H 11.066400 32.312500 11.815800
H 11.046400 32.318600 11.792000
H 10.542100 32.963400 12.366600
H 10.084900 32.199100 11.506600
H 12.020000 1.066510 13.140500
H 11.998000 1.076320 13.180700
H 11.744400 1.783390 13.834800
H 11.698400 1.787710 13.870700
H 13.017900 28.126100 10.518700
H 12.973100 28.133500 10.547200
H 12.313700 27.783000 11.195600
H 12.256700 27.808500 11.220300
H 13.786800 28.775900 10.276500
H 13.760200 28.762700 10.309500
H 13.498600 29.015800 11.240900
H 13.522900 29.023100 11.208900
H 14.740400 30.223200 11.261600
H 14.732200 30.263200 11.222200
H 14.407100 29.527600 10.571000
H 14.414200 29.558100 10.534100
H 12.485300 28.791900 12.627800
H 12.522500 28.774000 12.600800
H 11.803000 27.874900 12.148500
H 11.862800 27.838500 12.125900
H 11.786000 28.277600 13.060300
H 11.733500 28.314800 13.083200
H 12.786400 28.526700 11.668400
H 12.746800 28.538800 11.696300
H 13.237000 29.269000 12.172400
H 13.259100 29.270400 12.141300
H 12.975400 29.522200 13.103800
H 12.995200 29.517700 13.073700
H 13.988700 29.746100 11.717000
H 13.727100 29.999200 12.648400
H 13.731800 30.014100 12.614100
H 14.655400 30.702300 12.156700
H 14.670900 30.663100 12.196200
H 13.995600 29.766800 11.681800
H 14.217200 30.729500 13.124400
H 14.204500 30.757700 13.087000
H 11.764500 32.760400 12.392800
H 11.766700 32.766400 12.428500
H 12.103900 28.982700 13.748500
H 12.066900 29.010400 13.773700
H 12.713800 29.775300 14.035200
H 12.731400 29.764900 14.006000
H 13.500200 30.414600 13.763900
H 13.500900 30.404500 13.797600
H 7.786580 9.469130 30.970200
H 8.512290 9.260290 30.262000
H 9.381720 9.522620 29.764800
H 9.048620 11.018700 31.049800
H 9.215170 10.270700 30.407300
H 8.417600 10.243900 31.010000
H 10.161900 10.185800 29.612000
H 9.846190 11.045500 30.447100
H 10.643800 11.072200 29.844400
H 7.399020 10.093200 31.699800
H 7.453480 10.965200 32.255200
H 8.251050 10.992000 31.652500
H 9.679640 11.793500 31.089500
H 10.698200 11.944300 30.399800
H 10.310700 12.568300 31.129300
H 7.935350 11.851600 32.487600
H 8.882070 11.766800 31.692200
H 8.715520 12.514800 32.334700
H 9.584950 12.777200 31.837500
H 25.313800 1.589560 14.494100
H 25.753800 2.371980 13.978300
H 26.411100 3.171480 13.952000
H 26.487800 2.803600 14.878800
H 27.109500 3.773830 14.422400
H 25.208900 1.033880 15.361300
H 25.467300 0.853814 16.347600
H 25.939200 2.012650 15.149800
H 26.016000 1.644770 16.076500
H 26.564600 2.435730 15.805500
H 26.641400 2.067850 16.732200
H 27.661900 4.017640 15.263400
H 27.190000 2.858810 16.461200
H 27.113300 3.226680 15.534500
H 26.718200 1.699980 17.659000
H 27.375400 2.499470 17.632700
H 26.019800 1.097620 17.188600
H 27.920300 3.837580 16.249700
H 27.815500 3.281890 17.116900
H 22.637400 5.492510 7.842680
H 23.876600 5.533680 7.634540
H 22.664400 5.438540 7.874530
H 24.296500 5.735280 7.408210
H 25.552600 5.111000 7.747380
H 25.257800 5.468480 7.477270
H 24.829500 5.694220 7.377080
H 25.955600 5.978060 6.973730
H 25.965400 5.994650 6.982690
H 26.505500 5.271530 7.489930
H 26.475800 5.239240 7.479110
H 23.164500 3.939750 8.987860
H 23.233900 3.906270 9.026980
H 24.058700 3.474010 9.223390
H 24.140000 3.462940 9.260340
H 24.823600 4.182530 8.553380
H 24.369800 4.206700 8.632590
H 25.169200 3.418190 9.157290
H 25.087200 3.406150 9.125970
H 25.974400 3.754350 8.721700
H 26.045800 3.784010 8.745440
H 23.598800 5.225710 7.911740
H 23.862300 4.449330 8.484330
H 23.646700 4.789920 8.262290
H 22.644300 4.678570 8.482480
H 22.693800 4.629390 8.519740
H 25.521400 4.692110 8.049850
H 24.560100 4.958910 7.980800
H 24.599700 4.950460 8.004840
H 25.322700 4.367240 8.375140
H 26.482700 4.425310 8.118910
H 26.534900 4.462380 8.135140
H 24.030100 6.482730 6.852390
H 24.033000 6.511660 6.835620
H 23.145700 6.163460 7.239890
H 23.153500 6.116910 7.264240
H 25.061400 6.443800 6.738200
H 25.059400 6.437980 6.749330
H 1.542820 13.269000 5.776420
H 2.530020 13.110800 5.798550
H 3.517230 12.952700 5.820680
H 4.504430 12.794500 5.842810
H 0.956119 14.144600 5.124420
H 2.154190 13.848000 5.236860
H 1.778350 14.585100 4.675180
H 2.802000 14.630500 4.526950
H 3.752770 14.268800 4.719440
H 3.141390 13.689800 5.258990
H 4.375900 13.596700 5.201080
H 1.918650 12.531900 6.338100
H 1.307280 11.952900 6.877650
H 2.258040 11.591200 7.070150
H 4.103920 12.077100 6.472680
H 2.905860 12.373700 6.360230
H 3.281690 11.636600 6.921910
H 27.502100 10.547600 6.691610
H 27.536900 10.567400 6.732420
H 27.030500 11.406100 6.397710
H 27.005700 11.389800 6.350650
H 27.161600 12.589900 4.790920
H 27.165400 12.572900 4.745930
H 26.882500 12.131100 5.638480
H 26.893100 12.146400 5.687070
H 27.640400 11.572200 5.301880
H 28.846500 11.246300 4.102120
H 29.096500 10.855200 4.293240
H 29.294600 11.479100 3.238960
H 29.922600 9.931360 4.302390
H 29.785200 10.671600 3.591750
H 29.791000 10.637000 3.579920
H 29.914200 9.895710 4.292080
H 29.051600 9.459910 6.040080
H 29.018000 9.429960 6.018410
H 29.631300 9.453910 5.184630
H 29.654100 9.487830 5.198540
H 29.156300 10.454600 4.628680
H 29.031000 10.263300 5.096630
H 28.398300 11.013400 4.965280
H 28.708200 10.221700 5.491850
H 28.342300 10.447000 5.798120
H 27.950200 10.780500 5.828450
H 28.407800 11.038900 4.994730
H 27.719200 11.222500 5.696220
H 28.238700 9.830290 6.570000
H 28.276700 9.855060 6.601520
H 28.558000 12.196500 3.360570
H 27.764000 12.617800 3.949380
H 28.539000 12.222700 3.387940
H 28.473400 11.630800 4.191340
H 27.778700 12.596800 3.912160
H 29.278800 11.510300 3.257040
H 28.088500 11.805100 4.438720
H 27.784700 11.814400 4.892820
H 32.918500 13.427200 5.754290
H 33.047100 12.625000 6.396020
H 4.324440 12.064100 17.934700
H 5.242130 12.331400 17.536800
H 5.801830 12.696900 18.580500
H 3.695270 11.966400 18.751000
H 3.523200 12.064500 19.767200
H 4.862830 12.380600 18.715700
H 5.939590 13.013600 20.277800
H 5.401210 12.697100 19.496800
H 5.000590 12.697300 20.413100
H 4.462200 12.380800 19.632000
H 3.854340 12.332100 20.711000
H 4.599970 12.697500 21.329300
H 5.560280 13.062800 21.456700
H 6.948080 13.062200 18.282600
H 6.202450 12.696800 17.664200
H 6.340210 13.013500 19.361500
H 7.279220 13.329800 19.226300
H 7.107150 13.427900 20.242500
H 6.477980 13.330200 21.058900
H 27.330400 19.506100 16.891000
H 27.368700 19.494700 16.876700
H 26.646500 19.640700 17.656600
H 26.677200 19.633900 17.634700
H 27.366200 19.021300 18.022100
H 27.175900 18.917500 18.512700
H 26.330900 19.441100 18.622200
H 26.355000 19.444800 18.600200
H 27.675600 18.950000 17.647100
H 27.521000 18.361400 19.268800
H 27.021300 18.328900 20.134400
H 27.041600 18.358800 20.133000
H 27.271800 18.693400 18.962100
H 26.488400 18.978100 19.514700
H 26.468100 18.961000 19.529200
H 26.790000 19.025800 23.826600
H 27.188700 19.178200 22.883400
H 27.238700 19.918100 23.876400
H 27.221800 20.439300 24.729700
H 26.631700 19.351500 24.796500
H 26.756200 20.068200 25.533200
H 27.653600 21.852900 25.632800
H 27.130300 20.983800 25.839300
H 27.670500 21.331700 24.779500
H 29.020200 18.458800 16.671900
H 29.068800 18.458600 16.686100
H 28.199200 19.073500 16.530600
H 28.244000 19.064600 16.529500
H 28.865700 17.870200 18.293600
H 28.838600 18.124000 17.857000
H 28.055200 18.408700 18.409500
H 28.020800 18.393800 18.403100
H 28.520500 18.426300 17.537500
H 29.573400 17.826700 17.277100
H 29.622000 17.839300 17.304400
H 29.710600 17.346600 18.184000
H 29.755300 17.372600 18.218900
H 28.149600 18.736600 17.469500
H 28.744100 17.796100 18.797000
H 27.866300 17.752800 20.289600
H 28.366000 17.837700 19.159200
H 27.960800 18.080800 19.349600
H 28.711100 17.281600 19.915300
H 28.741700 17.322600 19.942400
H 27.842300 17.714200 20.275700
H 29.395000 17.147000 19.149700
H 29.433100 17.183500 19.184400
H 27.721100 19.768000 22.219600
H 28.244400 20.637100 22.013100
H 27.704200 20.289200 23.072900
H 28.152900 21.181600 23.122700
H 27.687300 20.810500 23.926200
H 28.618400 21.552700 22.319200
H 28.136000 21.702800 23.976000
H 28.743000 22.269400 23.055900
H 28.584700 22.595200 24.025800
H 28.185900 22.442700 24.969000
H 7.182960 22.231700 5.011620
H 7.095410 22.249800 6.043070
H 7.154470 22.247600 5.035390
H 7.096120 22.259400 6.069000
H 7.758830 22.343700 4.158560
H 7.705890 22.365300 4.167080
H 8.602620 22.580900 3.696720
H 9.668810 22.811200 3.792870
H 9.604400 22.836800 3.750350
H 8.668720 22.555800 3.712470
H 9.337110 22.764300 4.735130
H 9.299520 22.783800 4.701310
H 8.382120 22.530500 4.917970
H 8.350260 22.548100 4.909670
H 8.050410 22.483600 5.860230
H 8.045380 22.495100 5.860630
H 9.005400 22.717300 5.677390
H 8.994630 22.730900 5.652270
H 10.442800 23.064200 4.313590
H 10.491200 23.041400 4.378230
H 10.915400 23.184800 5.311700
H 10.893100 23.202400 5.235530
H 9.960390 22.951100 5.494540
H 9.943890 22.966600 5.443900
H 7.546480 22.397500 6.990940
H 7.519650 22.393200 6.976540
H 8.341980 22.623400 7.561900
H 8.384870 22.625000 7.554190
H 9.342080 22.878800 7.642300
H 9.386640 22.880800 7.607810
H 8.689750 22.677900 6.603230
H 8.673690 22.670400 6.619640
H 9.628680 22.904100 6.436800
H 9.639010 22.913700 6.394860
H 10.283400 23.096500 7.137450
H 10.252000 23.090900 7.196210
H 10.827800 23.202900 6.343150
H 10.834800 23.214200 6.269140
H 15.585400 4.048790 22.184900
H 13.878300 5.087450 22.271400
H 14.665100 4.478750 21.984500
H 16.392500 3.912810 22.818900
H 16.870300 4.107220 23.716500
H 13.435800 5.711820 22.968800
H 14.520800 5.116660 23.037300
H 14.309700 5.665210 23.846400
H 15.374300 4.597340 22.994000
H 16.016800 4.626550 23.759800
H 15.163200 5.145880 23.803100
H 14.952200 5.694420 24.612200
H 16.890600 4.579940 24.637400
H 15.805700 5.175090 24.568900
H 15.661400 5.813010 25.621600
H 16.448100 5.204300 25.334700
H 13.456200 6.184540 23.889600
H 14.741100 6.242960 25.421300
H 13.933900 6.378950 24.787300
H 17.019300 1.517340 25.035400
H 17.047900 1.563610 25.047200
H 17.079400 0.791729 24.357900
H 17.060900 0.744806 24.347400
H 17.896700 1.140180 25.844800
H 17.877100 1.108810 25.831200
H 17.381800 1.993410 25.927900
H 17.349000 1.953950 25.914300
H 17.991600 1.965970 26.764100
H 17.961700 1.937660 26.748700
H 18.562800 0.887787 26.546700
H 18.549200 0.868243 26.531500
H 18.693300 1.472820 27.315000
H 18.714000 1.488630 27.331700
H 17.462800 32.206300 24.034700
H 17.467900 32.247500 24.044800
H 18.848700 30.952600 24.747300
H 18.831700 30.970800 24.759300
H 19.441500 30.943400 25.595500
H 19.461400 30.936300 25.581700
H 17.745500 32.902300 25.059800
H 18.109300 31.448200 24.191700
H 18.117100 31.417400 24.181100
H 18.260500 32.049000 24.976700
H 18.261200 32.022000 24.964500
H 18.405200 32.626600 25.748000
H 18.411600 32.649900 25.761700
H 17.733100 32.867200 25.047700
H 18.933300 31.781400 25.664900
H 18.926600 31.796600 25.678600
H 19.749500 32.145400 27.148600
H 19.775400 31.373200 26.476200
H 19.791100 31.372900 26.460600
H 19.077800 32.397500 26.463600
H 19.355400 33.052200 27.478600
H 19.743900 32.145100 27.165500
H 19.077300 32.386000 26.448300
H 19.347600 33.046900 27.461300
H 12.730300 8.882580 25.874400
H 12.756000 8.910640 25.831200
H 13.178200 9.315990 24.977200
H 13.152700 9.281320 25.017400
H 13.698700 10.079200 24.509800
H 13.679700 10.037500 24.545800
H 14.177900 10.995900 24.554300
H 14.170000 10.948400 24.585900
H 13.856500 10.781800 25.520800
H 13.861400 10.823800 25.487200
H 13.347800 9.948270 25.736600
H 13.361600 9.983840 25.698600
H 12.545200 8.971800 26.843000
H 12.525600 8.948100 26.887200
H 13.034300 9.781660 26.671400
H 13.045100 9.811740 26.631500
H 13.228500 10.479600 27.353000
H 13.229400 10.448600 27.390600
H 13.728300 11.319500 27.141500
H 14.051600 11.448800 26.240000
H 14.044800 11.491600 26.208600
H 13.542900 10.615200 26.455700
H 13.544900 10.651700 26.420100
H 13.738000 11.282200 27.174900
H 12.602300 9.483090 27.741500
H 12.593500 9.460320 27.784300
H 12.915800 10.282000 28.325500
H 12.912000 10.307500 28.285900
H 13.391200 11.224100 28.330300
H 13.406200 11.193000 28.365600
H 14.492300 11.770100 25.127100
H 14.487600 11.820300 25.098600
H 14.560200 12.282300 26.024300
H 14.544700 12.331600 25.997100
H 14.355600 12.347800 27.037000
H 14.333900 12.392700 27.008900
H 13.933100 11.949100 27.894000
H 13.911700 11.987400 27.862900
H 16.001600 4.997610 2.327890
H 16.301500 5.617090 1.554480
H 16.098100 5.979250 3.751730
H 16.207300 5.874100 2.763240
H 15.811900 4.847840 3.334610
H 15.783300 5.207910 4.304870
H 15.923400 5.981340 4.978710
H 16.522200 6.645450 2.210090
H 16.631300 6.540300 1.221600
H 16.727900 7.521940 2.645440
H 16.413000 6.750600 3.198580
H 16.303900 6.855740 4.187070
H 16.618700 7.627090 3.633920
H 16.824400 8.503580 4.069270
H 16.524500 7.884100 4.842680
H 16.194700 6.960890 5.175560
H 16.902600 7.519850 1.418450
H 17.042700 8.293280 2.092290
H 17.014100 8.653350 3.062550
